wipe
model basic -ndm 3 -ndf 6

#node -nodeTag
node 1 0.00 0.00 0.00
node 2 5.00 0.00 0.00
node 3 15.00 0.00 0.00
node 4 25.00 0.00 0.00
node 5 35.00 0.00 0.00
node 6 40.00 0.00 0.00
node 7 43.75 0.00 0.00
node 8 51.25 0.00 0.00
node 9 58.75 0.00 0.00
node 10 66.25 0.00 0.00
node 11 73.75 0.00 0.00
node 12 81.25 0.00 0.00
node 13 88.75 0.00 0.00
node 14 96.25 0.00 0.00
node 15 100.00 0.00 0.00
node 16 105.00 0.00 0.00
node 17 115.00 0.00 0.00
node 18 125.00 0.00 0.00
node 19 135.00 0.00 0.00
node 20 140.00 0.00 0.00
# ... 4 like lines cut

node 25 40.00 0.00 -20.00
node 26 100.00 0.00 -20.00
node 27 0.00 0.00 -20.00
node 28 140.00 0.00 -20.00
node 29 40.00 0.00 -40.00
node 30 100.00 0.00 -40.00
node 31 0.00 0.00 -40.00
node 32 140.00 0.00 -40.00
node 33 40.00 0.00 -60.00
node 34 100.00 0.00 -60.00
node 35 0.00 0.00 -60.00
node 36 140.00 0.00 -60.00
node 37 40.00 0.00 -80.00
node 38 100.00 0.00 -80.00
node 39 0.00 0.00 -80.00
node 40 140.00 0.00 -80.00
node 41 40.00 0.00 -100.00
node 42 100.00 0.00 -100.00
node 43 0.00 0.00 -100.00
node 44 140.00 0.00 -100.00
# ... 4 like lines cut




mass	1	188102.50	188102.50	0.00	0.00	0.00	0.00
mass	2	356896.25	356896.25	0.00	0.00	0.00	0.00
mass	3	337587.50	337587.50	0.00	0.00	0.00	0.00
mass	4	337587.50	337587.50	0.00	0.00	0.00	0.00
mass	5	356896.25	356896.25	0.00	0.00	0.00	0.00
mass	6	329179.38	329179.38	0.00	0.00	0.00	0.00
mass	7	267672.19	267672.19	0.00	0.00	0.00	0.00
mass	8	253190.63	253190.63	0.00	0.00	0.00	0.00
mass	9	253190.63	253190.63	0.00	0.00	0.00	0.00
mass	10	253190.63	253190.63	0.00	0.00	0.00	0.00
mass	11	253190.63	253190.63	0.00	0.00	0.00	0.00
mass	12	253190.63	253190.63	0.00	0.00	0.00	0.00
mass	13	253190.63	253190.63	0.00	0.00	0.00	0.00
mass	14	267672.19	267672.19	0.00	0.00	0.00	0.00
mass	15	329179.38	329179.38	0.00	0.00	0.00	0.00
mass	16	356896.25	356896.25	0.00	0.00	0.00	0.00
mass	17	337587.50	337587.50	0.00	0.00	0.00	0.00
mass	18	337587.50	337587.50	0.00	0.00	0.00	0.00
mass	19	356896.25	356896.25	0.00	0.00	0.00	0.00
mass	20	188102.50	188102.50	0.00	0.00	0.00	0.00
							
mass	21	283527.50	283527.50	0.00	0.00	0.00	0.00
mass	22	567055.00	567055.00	0.00	0.00	0.00	0.00
mass	23	567055.00	567055.00	0.00	0.00	0.00	0.00
mass	24	567055.00	567055.00	0.00	0.00	0.00	0.00
mass	25	567055.00	567055.00	0.00	0.00	0.00	0.00
mass	26	567055.00	567055.00	0.00	0.00	0.00	0.00
mass	27	567055.00	567055.00	0.00	0.00	0.00	0.00
mass	28	567055.00	567055.00	0.00	0.00	0.00	0.00
mass	29	567055.00	567055.00	0.00	0.00	0.00	0.00
mass	30	567055.00	567055.00	0.00	0.00	0.00	0.00
mass	31	567055.00	567055.00	0.00	0.00	0.00	0.00
mass	32	567055.00	567055.00	0.00	0.00	0.00	0.00
mass	33	567055.00	567055.00	0.00	0.00	0.00	0.00
mass	34	567055.00	567055.00	0.00	0.00	0.00	0.00
mass	35	567055.00	567055.00	0.00	0.00	0.00	0.00
mass	36	567055.00	567055.00	0.00	0.00	0.00	0.00
mass	37	567055.00	567055.00	0.00	0.00	0.00	0.00
mass	38	567055.00	567055.00	0.00	0.00	0.00	0.00
mass	39	567055.00	567055.00	0.00	0.00	0.00	0.00
mass	40	567055.00	567055.00	0.00	0.00	0.00	0.00
# ... 8 like lines cut




fix 45 1 1 1 1 1 1;
fix 46 1 1 1 1 1 1;
fix 47 1 1 1 1 1 1;
fix 48 1 1 1 1 1 1;
#fix 1 0 1 1 1 1 1;
#fix 20 0 1 1 1 1 1;


equalDOF 21 6 3 4 5 6
equalDOF 22 15 3 4 5 6
equalDOF 23 1 3 4 5 6
equalDOF 24 20 3 4 5 6

uniaxialMaterial Steel01 1 156000 78000000 0.03
uniaxialMaterial Steel01 2 156000 78000000 0.03
uniaxialMaterial Steel01 3 56280 281400 0.03
uniaxialMaterial Steel01 4 56280 281400 0.03
#uniaxialMaterial Elastic 1 30000000

geomTransf Linear 238 0.000 0.000 1.000 
geomTransf Linear 255 0.000 1.000 0.000 
geomTransf Linear 259 1.000 0.000 0.000 

#element elasticBeamColumn $eleTag $iNode $jNode $A $E $G $J $Iy $Iz $transfTag <-mass $massDens> <-cMass>

element	elasticBeamColumn	1	1	2	30.0964	35500000000	14791666667	231.159	43.5001	100.981	238
element	elasticBeamColumn	2	2	3	13.5035	35500000000	14791666667	173.951	29.261	56.5177	238
element	elasticBeamColumn	3	3	4	13.5035	35500000000	14791666667	173.951	29.261	56.5177	238
element	elasticBeamColumn	4	4	5	13.5035	35500000000	14791666667	173.951	29.261	56.5177	238
element	elasticBeamColumn	5	5	6	30.0964	35500000000	14791666667	231.159	43.5001	100.981	238
element	elasticBeamColumn	6	6	7	30.0964	35500000000	14791666667	231.159	43.5001	100.981	238
element	elasticBeamColumn	7	7	8	13.5035	35500000000	14791666667	173.951	29.261	56.5177	238
element	elasticBeamColumn	8	8	9	13.5035	35500000000	14791666667	173.951	29.261	56.5177	238
element	elasticBeamColumn	9	9	10	13.5035	35500000000	14791666667	173.951	29.261	56.5177	238
element	elasticBeamColumn	10	10	11	13.5035	35500000000	14791666667	173.951	29.261	56.5177	238
element	elasticBeamColumn	11	11	12	13.5035	35500000000	14791666667	173.951	29.261	56.5177	238
element	elasticBeamColumn	12	12	13	13.5035	35500000000	14791666667	173.951	29.261	56.5177	238
element	elasticBeamColumn	13	13	14	13.5035	35500000000	14791666667	173.951	29.261	56.5177	238
element	elasticBeamColumn	14	14	15	30.0964	35500000000	14791666667	231.159	43.5001	100.981	238
element	elasticBeamColumn	15	15	16	30.0964	35500000000	14791666667	231.159	43.5001	100.981	238
element	elasticBeamColumn	16	16	17	13.5035	35500000000	14791666667	173.951	29.261	56.5177	238
element	elasticBeamColumn	17	17	18	13.5035	35500000000	14791666667	173.951	29.261	56.5177	238
element	elasticBeamColumn	18	18	19	13.5035	35500000000	14791666667	173.951	29.261	56.5177	238
element	elasticBeamColumn	19	19	20	30.0964	35500000000	14791666667	231.159	43.5001	100.981	238
											
element	elasticBeamColumn	20	21	25	11.3411	35500000000	14791666667	20.4708	10.2354	10.2354	255
element	elasticBeamColumn	21	22	26	11.3411	35500000000	14791666667	20.4708	10.2354	10.2354	255
element	elasticBeamColumn	22	23	27	11.3411	35500000000	14791666667	20.4708	10.2354	10.2354	255
element	elasticBeamColumn	23	24	28	11.3411	35500000000	14791666667	20.4708	10.2354	10.2354	255
element	elasticBeamColumn	24	25	29	11.3411	35500000000	14791666667	20.4708	10.2354	10.2354	255
element	elasticBeamColumn	25	26	30	11.3411	35500000000	14791666667	20.4708	10.2354	10.2354	255
element	elasticBeamColumn	26	27	31	11.3411	35500000000	14791666667	20.4708	10.2354	10.2354	255
element	elasticBeamColumn	27	28	32	11.3411	35500000000	14791666667	20.4708	10.2354	10.2354	255
element	elasticBeamColumn	28	29	33	11.3411	35500000000	14791666667	20.4708	10.2354	10.2354	255
element	elasticBeamColumn	29	30	34	11.3411	35500000000	14791666667	20.4708	10.2354	10.2354	255
element	elasticBeamColumn	30	31	35	11.3411	35500000000	14791666667	20.4708	10.2354	10.2354	255
element	elasticBeamColumn	31	32	36	11.3411	35500000000	14791666667	20.4708	10.2354	10.2354	255
element	elasticBeamColumn	32	33	37	11.3411	35500000000	14791666667	20.4708	10.2354	10.2354	255
element	elasticBeamColumn	33	34	38	11.3411	35500000000	14791666667	20.4708	10.2354	10.2354	255
element	elasticBeamColumn	34	35	39	11.3411	35500000000	14791666667	20.4708	10.2354	10.2354	255
element	elasticBeamColumn	35	36	40	11.3411	35500000000	14791666667	20.4708	10.2354	10.2354	255
element	elasticBeamColumn	36	37	41	11.3411	35500000000	14791666667	20.4708	10.2354	10.2354	255
element	elasticBeamColumn	37	38	42	11.3411	35500000000	14791666667	20.4708	10.2354	10.2354	255
element	elasticBeamColumn	38	39	43	11.3411	35500000000	14791666667	20.4708	10.2354	10.2354	255
element	elasticBeamColumn	39	40	44	11.3411	35500000000	14791666667	20.4708	10.2354	10.2354	255
# ... 4 like lines cut




element zeroLength 258 21 6 -mat 1 1  -dir 1 2
element zeroLength 254 22 15 -mat 2 2  -dir 1 2
element zeroLength 250 23 1 -mat 3 3  -dir 1 2
element zeroLength 246 24 20 -mat 4 4  -dir 1 2



#recorder Node -file node2.out -time -node 2 -dof 1 2 3 disp
#recorder Node -file node118.out -time -node 118 -dof 1 2 3 disp
#recorder Element -file ele244.out -time -ele 244 localForce
#recorder Element -file ele245.out -time -ele 245 localForce
#recorder Element -file ele244d.out -time -ele 244 deformation
#set xDamp 0.05;
#set nEigenI 1;
#set nEigenJ 2;
#set lambdaN [eigen [expr $nEigenJ]];
#set lambdaI [lindex $lambdaN [expr $nEigenI-1]];
#set lambdaJ [lindex $lambdaN [expr $nEigenJ-1]];
#set omegaI [expr pow($lambdaI,0.5)]; 
#set omegaJ [expr pow($lambdaJ,0.5)];
#set alphaM [expr $xDamp*(2*$omegaI*$omegaJ)/($omegaI+$omegaJ)]; 
#set betaKcurr [expr 2.*$xDamp/($omegaI+$omegaJ)];   
#rayleigh $alphaM $betaKcurr 0 0
#set IDloadTag 1001;
#set iGMfile "GM1X.txt";
#set iGMdirection "1"; 
#set iGMfact "10";  
#set dt 0.02;   
#foreach GMdirection $iGMdirection GMfile $iGMfile GMfact $iGMfact { 
#incr IDloadTag; 
#set GMfatt [expr 1*$iGMfact];  
#set AccelSeries "Series -dt $dt -filePath $iGMfile -factor  $GMfatt";
#pattern UniformExcitation  $IDloadTag  $GMdirection -accel  $AccelSeries; 
#}
#constraints Transformation; 
#numberer Plain;  
#system UmfPack; 
#test EnergyIncr 1.0e-4 200; 
#algorithm Newton 
#integrator Newmark 0.5 0.25 
#analysis Transient
#analyze 1000 0.02

#recorder Node -file eigen1_node0.out -time -nodeRange 1 2 -dof 1 2 3 "eigen 1"
#recorder Node -file eigen2_node0.out -time -nodeRange 1 2 -dof 1 2 3 "eigen 2"
#recorder Node -file eigen3_node0.out -time -nodeRange 1 2 -dof 1 2 3 "eigen 3"
#recorder Node -file eigen4_node0.out -time -nodeRange 1 2 -dof 1 2 3 "eigen 4"


puts "[eigen 32]"











###########################################################输出节点、单元计算结果

